# DIS package for MODFLOW-2005 generated by Flopy 3.9.5
         1        40        40         1         4         2
  0
CONSTANT    5.000000E+02                           #delr                          
CONSTANT    5.000000E+02                           #delc                          
INTERNAL               1  (40E15.6) -1 #model_top                     
   2.500000E+03   2.500000E+03   2.500000E+03   2.500000E+03   2.500000E+03   2.500000E+03   2.500000E+03   2.500000E+03   2.500000E+03   2.500000E+03   2.500000E+03   2.500000E+03   2.500000E+03   2.500000E+03   2.500000E+03   2.500000E+03   2.500000E+03   2.500000E+03   2.500000E+03   2.500000E+03   2.500000E+03   2.500000E+03   2.500000E+03   2.500000E+03   2.500000E+03   2.500000E+03   2.500000E+03   2.500000E+03   2.500000E+03   2.500000E+03   2.500000E+03   2.500000E+03   2.500000E+03   2.500000E+03   2.500000E+03   2.500000E+03   2.500000E+03   2.500000E+03   2.500000E+03   2.500000E+03
   2.500000E+03   2.500000E+03   2.500000E+03   2.500000E+03   2.500000E+03   2.500000E+03   2.500000E+03   2.500000E+03   2.500000E+03   2.500000E+03   2.500000E+03   2.500000E+03   2.500000E+03   2.500000E+03   2.500000E+03   2.500000E+03   2.500000E+03   2.500000E+03   2.500000E+03   2.500000E+03   2.500000E+03   2.500000E+03   2.500000E+03   2.500000E+03   2.500000E+03   2.500000E+03   2.500000E+03   2.500000E+03   2.500000E+03   2.500000E+03   2.500000E+03   2.500000E+03   2.500000E+03   2.500000E+03   2.500000E+03   2.500000E+03   2.500000E+03   2.500000E+03   2.500000E+03   2.500000E+03
   2.500000E+03   2.500000E+03   2.500000E+03   2.500000E+03   2.500000E+03   2.500000E+03   2.500000E+03   2.500000E+03   2.500000E+03   2.500000E+03   2.500000E+03   2.500000E+03   2.500000E+03   2.500000E+03   2.500000E+03   2.500000E+03   2.500000E+03   2.500000E+03   2.500000E+03   2.500000E+03   2.500000E+03   2.500000E+03   2.500000E+03   2.500000E+03   2.500000E+03   2.500000E+03   2.500000E+03   2.500000E+03   2.500000E+03   2.500000E+03   2.500000E+03   2.500000E+03   2.500000E+03   2.500000E+03   2.500000E+03   2.500000E+03   2.500000E+03   2.500000E+03   2.500000E+03   2.500000E+03
   2.500000E+03   2.500000E+03   2.500000E+03   2.500000E+03   2.500000E+03   2.500000E+03   2.500000E+03   2.500000E+03   2.500000E+03   2.500000E+03   2.500000E+03   2.500000E+03   2.500000E+03   2.500000E+03   2.500000E+03   2.500000E+03   2.500000E+03   2.500000E+03   2.500000E+03   2.500000E+03   2.500000E+03   2.500000E+03   2.500000E+03   2.500000E+03   2.500000E+03   2.500000E+03   2.500000E+03   2.500000E+03   2.500000E+03   2.500000E+03   2.500000E+03   2.500000E+03   2.500000E+03   2.500000E+03   2.500000E+03   2.500000E+03   2.500000E+03   2.500000E+03   2.500000E+03   2.500000E+03
   2.500000E+03   2.500000E+03   2.500000E+03   2.500000E+03   2.500000E+03   2.500000E+03   2.500000E+03   2.500000E+03   2.500000E+03   2.500000E+03   2.500000E+03   2.500000E+03   2.500000E+03   2.500000E+03   2.500000E+03   2.500000E+03   2.500000E+03   2.500000E+03   2.500000E+03   2.500000E+03   2.500000E+03   2.500000E+03   2.500000E+03   2.500000E+03   2.500000E+03   2.500000E+03   2.500000E+03   2.500000E+03   2.500000E+03   2.500000E+03   2.500000E+03   2.500000E+03   2.500000E+03   2.500000E+03   2.500000E+03   2.500000E+03   2.500000E+03   2.500000E+03   2.500000E+03   2.500000E+03
   2.500000E+03   2.500000E+03   2.500000E+03   2.500000E+03   2.500000E+03   2.500000E+03   2.500000E+03   2.500000E+03   2.500000E+03   2.500000E+03   2.500000E+03   2.500000E+03   2.500000E+03   2.500000E+03   2.500000E+03   2.500000E+03   2.500000E+03   2.500000E+03   2.500000E+03   2.500000E+03   2.500000E+03   2.500000E+03   2.500000E+03   2.500000E+03   2.500000E+03   2.500000E+03   2.500000E+03   2.500000E+03   2.500000E+03   2.500000E+03   2.500000E+03   2.500000E+03   2.500000E+03   2.500000E+03   2.500000E+03   2.500000E+03   2.500000E+03   2.500000E+03   2.500000E+03   2.500000E+03
   2.500000E+03   2.500000E+03   2.500000E+03   2.500000E+03   2.500000E+03   2.500000E+03   2.500000E+03   2.500000E+03   2.500000E+03   2.500000E+03   2.500000E+03   2.500000E+03   2.500000E+03   2.500000E+03   2.500000E+03   2.500000E+03   2.500000E+03   2.500000E+03   2.500000E+03   2.500000E+03   2.500000E+03   2.500000E+03   2.500000E+03   2.500000E+03   2.500000E+03   2.500000E+03   2.500000E+03   2.500000E+03   2.500000E+03   2.500000E+03   2.500000E+03   2.500000E+03   2.500000E+03   2.500000E+03   2.500000E+03   2.500000E+03   2.500000E+03   2.500000E+03   2.500000E+03   2.500000E+03
   2.500000E+03   2.500000E+03   2.500000E+03   2.500000E+03   2.500000E+03   2.500000E+03   2.500000E+03   2.500000E+03   2.500000E+03   2.500000E+03   2.500000E+03   2.500000E+03   2.500000E+03   2.500000E+03   2.500000E+03   2.500000E+03   2.500000E+03   2.500000E+03   2.500000E+03   2.500000E+03   2.500000E+03   2.500000E+03   2.500000E+03   2.500000E+03   2.500000E+03   2.500000E+03   2.500000E+03   2.500000E+03   2.500000E+03   2.500000E+03   2.500000E+03   2.500000E+03   2.500000E+03   2.500000E+03   2.500000E+03   2.500000E+03   2.500000E+03   2.500000E+03   2.500000E+03   2.500000E+03
   2.500000E+03   2.500000E+03   2.500000E+03   2.500000E+03   2.500000E+03   2.500000E+03   2.500000E+03   2.500000E+03   2.500000E+03   2.500000E+03   2.500000E+03   2.500000E+03   2.500000E+03   2.500000E+03   2.500000E+03   2.500000E+03   2.500000E+03   2.500000E+03   2.500000E+03   2.500000E+03   2.500000E+03   2.500000E+03   2.500000E+03   2.500000E+03   2.500000E+03   2.500000E+03   2.500000E+03   2.500000E+03   2.500000E+03   2.500000E+03   2.500000E+03   2.500000E+03   2.500000E+03   2.500000E+03   2.500000E+03   2.500000E+03   2.500000E+03   2.500000E+03   2.500000E+03   2.500000E+03
   2.500000E+03   2.500000E+03   2.500000E+03   2.500000E+03   2.500000E+03   2.500000E+03   2.500000E+03   2.500000E+03   2.500000E+03   2.500000E+03   2.500000E+03   2.500000E+03   2.500000E+03   2.500000E+03   2.500000E+03   2.500000E+03   2.500000E+03   2.500000E+03   2.500000E+03   2.500000E+03   2.500000E+03   2.500000E+03   2.500000E+03   2.500000E+03   2.500000E+03   2.500000E+03   2.500000E+03   2.500000E+03   2.500000E+03   2.500000E+03   2.500000E+03   2.500000E+03   2.500000E+03   2.500000E+03   2.500000E+03   2.500000E+03   2.500000E+03   2.500000E+03   2.500000E+03   2.500000E+03
   2.500000E+03   2.500000E+03   2.500000E+03   2.500000E+03   2.500000E+03   2.500000E+03   2.500000E+03   2.500000E+03   2.500000E+03   2.500000E+03   2.500000E+03   2.500000E+03   2.500000E+03   2.500000E+03   2.500000E+03   2.500000E+03   2.500000E+03   2.500000E+03   2.500000E+03   2.500000E+03   2.500000E+03   2.500000E+03   2.500000E+03   2.500000E+03   2.500000E+03   2.500000E+03   2.500000E+03   2.500000E+03   2.500000E+03   2.500000E+03   2.500000E+03   2.500000E+03   2.500000E+03   2.500000E+03   2.500000E+03   2.500000E+03   2.500000E+03   2.500000E+03   2.500000E+03   2.500000E+03
   2.500000E+03   2.500000E+03   2.500000E+03   2.500000E+03   2.500000E+03   2.500000E+03   2.500000E+03   2.500000E+03   2.500000E+03   2.500000E+03   2.500000E+03   2.500000E+03   2.500000E+03   2.500000E+03   2.500000E+03   2.500000E+03   2.500000E+03   2.500000E+03   2.500000E+03   2.500000E+03   2.500000E+03   2.500000E+03   2.500000E+03   2.500000E+03   2.500000E+03   2.500000E+03   2.500000E+03   2.500000E+03   2.500000E+03   2.500000E+03   2.500000E+03   2.500000E+03   2.500000E+03   2.500000E+03   2.500000E+03   2.500000E+03   2.500000E+03   2.500000E+03   2.500000E+03   2.500000E+03
   2.500000E+03   2.500000E+03   2.500000E+03   2.500000E+03   2.500000E+03   2.500000E+03   2.500000E+03   2.500000E+03   2.500000E+03   2.500000E+03   2.500000E+03   2.500000E+03   2.500000E+03   2.500000E+03   2.500000E+03   2.500000E+03   2.500000E+03   2.500000E+03   2.500000E+03   2.500000E+03   2.500000E+03   2.500000E+03   2.500000E+03   2.500000E+03   2.500000E+03   2.500000E+03   2.500000E+03   2.500000E+03   2.500000E+03   2.500000E+03   2.500000E+03   2.500000E+03   2.500000E+03   2.500000E+03   2.500000E+03   2.500000E+03   2.500000E+03   2.500000E+03   2.500000E+03   2.500000E+03
   2.500000E+03   2.500000E+03   2.500000E+03   2.500000E+03   2.500000E+03   2.500000E+03   2.500000E+03   2.500000E+03   2.500000E+03   2.500000E+03   2.500000E+03   2.500000E+03   2.500000E+03   2.500000E+03   2.500000E+03   2.500000E+03   2.500000E+03   2.500000E+03   2.500000E+03   2.500000E+03   2.500000E+03   2.500000E+03   2.500000E+03   2.500000E+03   2.500000E+03   2.500000E+03   2.500000E+03   2.500000E+03   2.500000E+03   2.500000E+03   2.500000E+03   2.500000E+03   2.500000E+03   2.500000E+03   2.500000E+03   2.500000E+03   2.500000E+03   2.500000E+03   2.500000E+03   2.500000E+03
   2.500000E+03   2.500000E+03   2.500000E+03   2.500000E+03   2.500000E+03   2.500000E+03   2.500000E+03   2.500000E+03   2.500000E+03   2.500000E+03   2.500000E+03   2.500000E+03   2.500000E+03   2.500000E+03   2.500000E+03   2.500000E+03   2.500000E+03   2.500000E+03   2.500000E+03   2.500000E+03   2.500000E+03   2.500000E+03   2.500000E+03   2.500000E+03   2.500000E+03   2.500000E+03   2.500000E+03   2.500000E+03   2.500000E+03   2.500000E+03   2.500000E+03   2.500000E+03   2.500000E+03   2.500000E+03   2.500000E+03   2.500000E+03   2.500000E+03   2.500000E+03   2.500000E+03   2.500000E+03
   2.500000E+03   2.500000E+03   2.500000E+03   2.500000E+03   2.500000E+03   2.500000E+03   2.500000E+03   2.500000E+03   2.500000E+03   2.500000E+03   2.500000E+03   2.500000E+03   2.500000E+03   2.500000E+03   2.500000E+03   2.500000E+03   2.500000E+03   2.500000E+03   2.500000E+03   2.500000E+03   2.500000E+03   2.500000E+03   2.500000E+03   2.500000E+03   2.500000E+03   2.500000E+03   2.500000E+03   2.500000E+03   2.500000E+03   2.500000E+03   2.500000E+03   2.500000E+03   2.500000E+03   2.500000E+03   2.500000E+03   2.500000E+03   2.500000E+03   2.500000E+03   2.500000E+03   2.500000E+03
   2.500000E+03   2.500000E+03   2.500000E+03   2.500000E+03   2.500000E+03   2.500000E+03   2.500000E+03   2.500000E+03   2.500000E+03   2.500000E+03   2.500000E+03   2.500000E+03   2.500000E+03   2.500000E+03   2.500000E+03   2.500000E+03   2.500000E+03   2.500000E+03   2.500000E+03   2.500000E+03   2.500000E+03   2.500000E+03   2.500000E+03   2.500000E+03   2.500000E+03   2.500000E+03   2.500000E+03   2.500000E+03   2.500000E+03   2.500000E+03   2.500000E+03   2.500000E+03   2.500000E+03   2.500000E+03   2.500000E+03   2.500000E+03   2.500000E+03   2.500000E+03   2.500000E+03   2.500000E+03
   2.500000E+03   2.500000E+03   2.500000E+03   2.500000E+03   2.500000E+03   2.500000E+03   2.500000E+03   2.500000E+03   2.500000E+03   2.500000E+03   2.500000E+03   2.500000E+03   2.500000E+03   2.500000E+03   2.500000E+03   2.500000E+03   2.500000E+03   2.500000E+03   2.500000E+03   2.500000E+03   2.500000E+03   2.500000E+03   2.500000E+03   2.500000E+03   2.500000E+03   2.500000E+03   2.500000E+03   2.500000E+03   2.500000E+03   2.500000E+03   2.500000E+03   2.500000E+03   2.500000E+03   2.500000E+03   2.500000E+03   2.500000E+03   2.500000E+03   2.500000E+03   2.500000E+03   2.500000E+03
   2.500000E+03   2.500000E+03   2.500000E+03   2.500000E+03   2.500000E+03   2.500000E+03   2.500000E+03   2.500000E+03   2.500000E+03   2.500000E+03   2.500000E+03   2.500000E+03   2.500000E+03   2.500000E+03   2.500000E+03   2.500000E+03   2.500000E+03   2.500000E+03   2.500000E+03   2.500000E+03   2.500000E+03   2.500000E+03   2.500000E+03   2.500000E+03   2.500000E+03   2.500000E+03   2.500000E+03   2.500000E+03   2.500000E+03   2.500000E+03   2.500000E+03   2.500000E+03   2.500000E+03   2.500000E+03   2.500000E+03   2.500000E+03   2.500000E+03   2.500000E+03   2.500000E+03   2.500000E+03
   2.500000E+03   2.500000E+03   2.500000E+03   2.500000E+03   2.500000E+03   2.500000E+03   2.500000E+03   2.500000E+03   2.500000E+03   2.500000E+03   2.500000E+03   2.500000E+03   2.500000E+03   2.500000E+03   2.500000E+03   2.500000E+03   2.500000E+03   2.500000E+03   2.500000E+03   2.500000E+03   2.500000E+03   2.500000E+03   2.500000E+03   2.500000E+03   2.500000E+03   2.500000E+03   2.500000E+03   2.500000E+03   2.500000E+03   2.500000E+03   2.500000E+03   2.500000E+03   2.500000E+03   2.500000E+03   2.500000E+03   2.500000E+03   2.500000E+03   2.500000E+03   2.500000E+03   2.500000E+03
   2.500000E+03   2.500000E+03   2.500000E+03   2.500000E+03   2.500000E+03   2.500000E+03   2.500000E+03   2.500000E+03   2.500000E+03   2.500000E+03   2.500000E+03   2.500000E+03   2.500000E+03   2.500000E+03   2.500000E+03   2.500000E+03   2.500000E+03   2.500000E+03   2.500000E+03   2.500000E+03   2.500000E+03   2.500000E+03   2.500000E+03   2.500000E+03   2.500000E+03   2.500000E+03   2.500000E+03   2.500000E+03   2.500000E+03   2.500000E+03   2.500000E+03   2.500000E+03   2.500000E+03   2.500000E+03   2.500000E+03   2.500000E+03   2.500000E+03   2.500000E+03   2.500000E+03   2.500000E+03
   2.500000E+03   2.500000E+03   2.500000E+03   2.500000E+03   2.500000E+03   2.500000E+03   2.500000E+03   2.500000E+03   2.500000E+03   2.500000E+03   2.500000E+03   2.500000E+03   2.500000E+03   2.500000E+03   2.500000E+03   2.500000E+03   2.500000E+03   2.500000E+03   2.500000E+03   2.500000E+03   2.500000E+03   2.500000E+03   2.500000E+03   2.500000E+03   2.500000E+03   2.500000E+03   2.500000E+03   2.500000E+03   2.500000E+03   2.500000E+03   2.500000E+03   2.500000E+03   2.500000E+03   2.500000E+03   2.500000E+03   2.500000E+03   2.500000E+03   2.500000E+03   2.500000E+03   2.500000E+03
   2.500000E+03   2.500000E+03   2.500000E+03   2.500000E+03   2.500000E+03   2.500000E+03   2.500000E+03   2.500000E+03   2.500000E+03   2.500000E+03   2.500000E+03   2.500000E+03   2.500000E+03   2.500000E+03   2.500000E+03   2.500000E+03   2.500000E+03   2.500000E+03   2.500000E+03   2.500000E+03   2.500000E+03   2.500000E+03   2.500000E+03   2.500000E+03   2.500000E+03   2.500000E+03   2.500000E+03   2.500000E+03   2.500000E+03   2.500000E+03   2.500000E+03   2.500000E+03   2.500000E+03   2.500000E+03   2.500000E+03   2.500000E+03   2.500000E+03   2.500000E+03   2.500000E+03   2.500000E+03
   2.500000E+03   2.500000E+03   2.500000E+03   2.500000E+03   2.500000E+03   2.500000E+03   2.500000E+03   2.500000E+03   2.500000E+03   2.500000E+03   2.500000E+03   2.500000E+03   2.500000E+03   2.500000E+03   2.500000E+03   2.500000E+03   2.500000E+03   2.500000E+03   2.500000E+03   2.500000E+03   2.500000E+03   2.500000E+03   2.500000E+03   2.500000E+03   2.500000E+03   2.500000E+03   2.500000E+03   2.500000E+03   2.500000E+03   2.500000E+03   2.500000E+03   2.500000E+03   2.500000E+03   2.500000E+03   2.500000E+03   2.500000E+03   2.500000E+03   2.500000E+03   2.500000E+03   2.500000E+03
   2.500000E+03   2.500000E+03   2.500000E+03   2.500000E+03   2.500000E+03   2.500000E+03   2.500000E+03   2.500000E+03   2.500000E+03   2.500000E+03   2.500000E+03   2.500000E+03   2.500000E+03   2.500000E+03   2.500000E+03   2.500000E+03   2.500000E+03   2.500000E+03   2.500000E+03   2.500000E+03   2.500000E+03   2.500000E+03   2.500000E+03   2.500000E+03   2.500000E+03   2.500000E+03   2.500000E+03   2.500000E+03   2.500000E+03   2.500000E+03   2.500000E+03   2.500000E+03   2.500000E+03   2.500000E+03   2.500000E+03   2.500000E+03   2.500000E+03   2.500000E+03   2.500000E+03   2.500000E+03
   2.500000E+03   2.500000E+03   2.500000E+03   2.500000E+03   2.500000E+03   2.500000E+03   2.500000E+03   2.500000E+03   2.500000E+03   2.500000E+03   2.500000E+03   2.500000E+03   2.500000E+03   2.500000E+03   2.500000E+03   2.500000E+03   2.500000E+03   2.500000E+03   2.500000E+03   2.500000E+03   2.500000E+03   2.500000E+03   2.500000E+03   2.500000E+03   2.500000E+03   2.500000E+03   2.500000E+03   2.500000E+03   2.500000E+03   2.500000E+03   2.500000E+03   2.500000E+03   2.500000E+03   2.500000E+03   2.500000E+03   2.500000E+03   2.500000E+03   2.500000E+03   2.500000E+03   2.500000E+03
   2.500000E+03   2.500000E+03   2.500000E+03   2.500000E+03   2.500000E+03   2.500000E+03   2.500000E+03   2.500000E+03   2.500000E+03   2.500000E+03   2.500000E+03   2.500000E+03   2.500000E+03   2.500000E+03   2.500000E+03   2.500000E+03   2.500000E+03   2.500000E+03   2.500000E+03   2.500000E+03   2.500000E+03   2.500000E+03   2.500000E+03   2.500000E+03   2.500000E+03   2.500000E+03   2.500000E+03   2.500000E+03   2.500000E+03   2.500000E+03   2.500000E+03   2.500000E+03   2.500000E+03   2.500000E+03   2.500000E+03   2.500000E+03   2.500000E+03   2.500000E+03   2.500000E+03   2.500000E+03
   2.500000E+03   2.500000E+03   2.500000E+03   2.500000E+03   2.500000E+03   2.500000E+03   2.500000E+03   2.500000E+03   2.500000E+03   2.500000E+03   2.500000E+03   2.500000E+03   2.500000E+03   2.500000E+03   2.500000E+03   2.500000E+03   2.500000E+03   2.500000E+03   2.500000E+03   2.500000E+03   2.500000E+03   2.500000E+03   2.500000E+03   2.500000E+03   2.500000E+03   2.500000E+03   2.500000E+03   2.500000E+03   2.500000E+03   2.500000E+03   2.500000E+03   2.500000E+03   2.500000E+03   2.500000E+03   2.500000E+03   2.500000E+03   2.500000E+03   2.500000E+03   2.500000E+03   2.500000E+03
   2.500000E+03   2.500000E+03   2.500000E+03   2.500000E+03   2.500000E+03   2.500000E+03   2.500000E+03   2.500000E+03   2.500000E+03   2.500000E+03   2.500000E+03   2.500000E+03   2.500000E+03   2.500000E+03   2.500000E+03   2.500000E+03   2.500000E+03   2.500000E+03   2.500000E+03   2.500000E+03   2.500000E+03   2.500000E+03   2.500000E+03   2.500000E+03   2.500000E+03   2.500000E+03   2.500000E+03   2.500000E+03   2.500000E+03   2.500000E+03   2.500000E+03   2.500000E+03   2.500000E+03   2.500000E+03   2.500000E+03   2.500000E+03   2.500000E+03   2.500000E+03   2.500000E+03   2.500000E+03
   2.500000E+03   2.500000E+03   2.500000E+03   2.500000E+03   2.500000E+03   2.500000E+03   2.500000E+03   2.500000E+03   2.500000E+03   2.500000E+03   2.500000E+03   2.500000E+03   2.500000E+03   2.500000E+03   2.500000E+03   2.500000E+03   2.500000E+03   2.500000E+03   2.500000E+03   2.500000E+03   2.500000E+03   2.500000E+03   2.500000E+03   2.500000E+03   2.500000E+03   2.500000E+03   2.500000E+03   2.500000E+03   2.500000E+03   2.500000E+03   2.500000E+03   2.500000E+03   2.500000E+03   2.500000E+03   2.500000E+03   2.500000E+03   2.500000E+03   2.500000E+03   2.500000E+03   2.500000E+03
   2.500000E+03   2.500000E+03   2.500000E+03   2.500000E+03   2.500000E+03   2.500000E+03   2.500000E+03   2.500000E+03   2.500000E+03   2.500000E+03   2.500000E+03   2.500000E+03   2.500000E+03   2.500000E+03   2.500000E+03   2.500000E+03   2.500000E+03   2.500000E+03   2.500000E+03   2.500000E+03   2.500000E+03   2.500000E+03   2.500000E+03   2.500000E+03   2.500000E+03   2.500000E+03   2.500000E+03   2.500000E+03   2.500000E+03   2.500000E+03   2.500000E+03   2.500000E+03   2.500000E+03   2.500000E+03   2.500000E+03   2.500000E+03   2.500000E+03   2.500000E+03   2.500000E+03   2.500000E+03
   2.500000E+03   2.500000E+03   2.500000E+03   2.500000E+03   2.500000E+03   2.500000E+03   2.500000E+03   2.500000E+03   2.500000E+03   2.500000E+03   2.500000E+03   2.500000E+03   2.500000E+03   2.500000E+03   2.500000E+03   2.500000E+03   2.500000E+03   2.500000E+03   2.500000E+03   2.500000E+03   2.500000E+03   2.500000E+03   2.500000E+03   2.500000E+03   2.500000E+03   2.500000E+03   2.500000E+03   2.500000E+03   2.500000E+03   2.500000E+03   2.500000E+03   2.500000E+03   2.500000E+03   2.500000E+03   2.500000E+03   2.500000E+03   2.500000E+03   2.500000E+03   2.500000E+03   2.500000E+03
   2.500000E+03   2.500000E+03   2.500000E+03   2.500000E+03   2.500000E+03   2.500000E+03   2.500000E+03   2.500000E+03   2.500000E+03   2.500000E+03   2.500000E+03   2.500000E+03   2.500000E+03   2.500000E+03   2.500000E+03   2.500000E+03   2.500000E+03   2.500000E+03   2.500000E+03   2.500000E+03   2.500000E+03   2.500000E+03   2.500000E+03   2.500000E+03   2.500000E+03   2.500000E+03   2.500000E+03   2.500000E+03   2.500000E+03   2.500000E+03   2.500000E+03   2.500000E+03   2.500000E+03   2.500000E+03   2.500000E+03   2.500000E+03   2.500000E+03   2.500000E+03   2.500000E+03   2.500000E+03
   2.500000E+03   2.500000E+03   2.500000E+03   2.500000E+03   2.500000E+03   2.500000E+03   2.500000E+03   2.500000E+03   2.500000E+03   2.500000E+03   2.500000E+03   2.500000E+03   2.500000E+03   2.500000E+03   2.500000E+03   2.500000E+03   2.500000E+03   2.500000E+03   2.500000E+03   2.500000E+03   2.500000E+03   2.500000E+03   2.500000E+03   2.500000E+03   2.500000E+03   2.500000E+03   2.500000E+03   2.500000E+03   2.500000E+03   2.500000E+03   2.500000E+03   2.500000E+03   2.500000E+03   2.500000E+03   2.500000E+03   2.500000E+03   2.500000E+03   2.500000E+03   2.500000E+03   2.500000E+03
   2.500000E+03   2.500000E+03   2.500000E+03   2.500000E+03   2.500000E+03   2.500000E+03   2.500000E+03   2.500000E+03   2.500000E+03   2.500000E+03   2.500000E+03   2.500000E+03   2.500000E+03   2.500000E+03   2.500000E+03   2.500000E+03   2.500000E+03   2.500000E+03   2.500000E+03   2.500000E+03   2.500000E+03   2.500000E+03   2.500000E+03   2.500000E+03   2.500000E+03   2.500000E+03   2.500000E+03   2.500000E+03   2.500000E+03   2.500000E+03   2.500000E+03   2.500000E+03   2.500000E+03   2.500000E+03   2.500000E+03   2.500000E+03   2.500000E+03   2.500000E+03   2.500000E+03   2.500000E+03
   2.500000E+03   2.500000E+03   2.500000E+03   2.500000E+03   2.500000E+03   2.500000E+03   2.500000E+03   2.500000E+03   2.500000E+03   2.500000E+03   2.500000E+03   2.500000E+03   2.500000E+03   2.500000E+03   2.500000E+03   2.500000E+03   2.500000E+03   2.500000E+03   2.500000E+03   2.500000E+03   2.500000E+03   2.500000E+03   2.500000E+03   2.500000E+03   2.500000E+03   2.500000E+03   2.500000E+03   2.500000E+03   2.500000E+03   2.500000E+03   2.500000E+03   2.500000E+03   2.500000E+03   2.500000E+03   2.500000E+03   2.500000E+03   2.500000E+03   2.500000E+03   2.500000E+03   2.500000E+03
   2.500000E+03   2.500000E+03   2.500000E+03   2.500000E+03   2.500000E+03   2.500000E+03   2.500000E+03   2.500000E+03   2.500000E+03   2.500000E+03   2.500000E+03   2.500000E+03   2.500000E+03   2.500000E+03   2.500000E+03   2.500000E+03   2.500000E+03   2.500000E+03   2.500000E+03   2.500000E+03   2.500000E+03   2.500000E+03   2.500000E+03   2.500000E+03   2.500000E+03   2.500000E+03   2.500000E+03   2.500000E+03   2.500000E+03   2.500000E+03   2.500000E+03   2.500000E+03   2.500000E+03   2.500000E+03   2.500000E+03   2.500000E+03   2.500000E+03   2.500000E+03   2.500000E+03   2.500000E+03
   2.500000E+03   2.500000E+03   2.500000E+03   2.500000E+03   2.500000E+03   2.500000E+03   2.500000E+03   2.500000E+03   2.500000E+03   2.500000E+03   2.500000E+03   2.500000E+03   2.500000E+03   2.500000E+03   2.500000E+03   2.500000E+03   2.500000E+03   2.500000E+03   2.500000E+03   2.500000E+03   2.500000E+03   2.500000E+03   2.500000E+03   2.500000E+03   2.500000E+03   2.500000E+03   2.500000E+03   2.500000E+03   2.500000E+03   2.500000E+03   2.500000E+03   2.500000E+03   2.500000E+03   2.500000E+03   2.500000E+03   2.500000E+03   2.500000E+03   2.500000E+03   2.500000E+03   2.500000E+03
   2.500000E+03   2.500000E+03   2.500000E+03   2.500000E+03   2.500000E+03   2.500000E+03   2.500000E+03   2.500000E+03   2.500000E+03   2.500000E+03   2.500000E+03   2.500000E+03   2.500000E+03   2.500000E+03   2.500000E+03   2.500000E+03   2.500000E+03   2.500000E+03   2.500000E+03   2.500000E+03   2.500000E+03   2.500000E+03   2.500000E+03   2.500000E+03   2.500000E+03   2.500000E+03   2.500000E+03   2.500000E+03   2.500000E+03   2.500000E+03   2.500000E+03   2.500000E+03   2.500000E+03   2.500000E+03   2.500000E+03   2.500000E+03   2.500000E+03   2.500000E+03   2.500000E+03   2.500000E+03
   2.500000E+03   2.500000E+03   2.500000E+03   2.500000E+03   2.500000E+03   2.500000E+03   2.500000E+03   2.500000E+03   2.500000E+03   2.500000E+03   2.500000E+03   2.500000E+03   2.500000E+03   2.500000E+03   2.500000E+03   2.500000E+03   2.500000E+03   2.500000E+03   2.500000E+03   2.500000E+03   2.500000E+03   2.500000E+03   2.500000E+03   2.500000E+03   2.500000E+03   2.500000E+03   2.500000E+03   2.500000E+03   2.500000E+03   2.500000E+03   2.500000E+03   2.500000E+03   2.500000E+03   2.500000E+03   2.500000E+03   2.500000E+03   2.500000E+03   2.500000E+03   2.500000E+03   2.500000E+03
INTERNAL               1  (40E15.6) -1 #botm layer 1                  
   2.300000E+03   2.300000E+03   2.300000E+03   2.300000E+03   2.300000E+03   2.300000E+03   2.300000E+03   2.300000E+03   2.300000E+03   2.300000E+03   2.300000E+03   2.300000E+03   2.300000E+03   2.300000E+03   2.300000E+03   2.300000E+03   2.300000E+03   2.300000E+03   2.300000E+03   2.300000E+03   2.300000E+03   2.300000E+03   2.300000E+03   2.300000E+03   2.300000E+03   2.300000E+03   2.300000E+03   2.300000E+03   2.300000E+03   2.300000E+03   2.300000E+03   2.300000E+03   2.300000E+03   2.300000E+03   2.300000E+03   2.300000E+03   2.300000E+03   2.300000E+03   2.300000E+03   2.300000E+03
   2.300000E+03   2.300000E+03   2.300000E+03   2.300000E+03   2.300000E+03   2.300000E+03   2.300000E+03   2.300000E+03   2.300000E+03   2.300000E+03   2.300000E+03   2.300000E+03   2.300000E+03   2.300000E+03   2.300000E+03   2.300000E+03   2.300000E+03   2.300000E+03   2.300000E+03   2.300000E+03   2.300000E+03   2.300000E+03   2.300000E+03   2.300000E+03   2.300000E+03   2.300000E+03   2.300000E+03   2.300000E+03   2.300000E+03   2.300000E+03   2.300000E+03   2.300000E+03   2.300000E+03   2.300000E+03   2.300000E+03   2.300000E+03   2.300000E+03   2.300000E+03   2.300000E+03   2.300000E+03
   2.300000E+03   2.300000E+03   2.300000E+03   2.300000E+03   2.300000E+03   2.300000E+03   2.300000E+03   2.300000E+03   2.300000E+03   2.300000E+03   2.300000E+03   2.300000E+03   2.300000E+03   2.300000E+03   2.300000E+03   2.300000E+03   2.300000E+03   2.300000E+03   2.300000E+03   2.300000E+03   2.300000E+03   2.300000E+03   2.300000E+03   2.300000E+03   2.300000E+03   2.300000E+03   2.300000E+03   2.300000E+03   2.300000E+03   2.300000E+03   2.300000E+03   2.300000E+03   2.300000E+03   2.300000E+03   2.300000E+03   2.300000E+03   2.300000E+03   2.300000E+03   2.300000E+03   2.300000E+03
   2.300000E+03   2.300000E+03   2.300000E+03   2.300000E+03   2.300000E+03   2.300000E+03   2.300000E+03   2.300000E+03   2.300000E+03   2.300000E+03   2.300000E+03   2.300000E+03   2.300000E+03   2.300000E+03   2.300000E+03   2.300000E+03   2.300000E+03   2.300000E+03   2.300000E+03   2.300000E+03   2.300000E+03   2.300000E+03   2.300000E+03   2.300000E+03   2.300000E+03   2.300000E+03   2.300000E+03   2.300000E+03   2.300000E+03   2.300000E+03   2.300000E+03   2.300000E+03   2.300000E+03   2.300000E+03   2.300000E+03   2.300000E+03   2.300000E+03   2.300000E+03   2.300000E+03   2.300000E+03
   2.300000E+03   2.300000E+03   2.300000E+03   2.300000E+03   2.300000E+03   2.300000E+03   2.300000E+03   2.300000E+03   2.300000E+03   2.300000E+03   2.300000E+03   2.300000E+03   2.300000E+03   2.300000E+03   2.300000E+03   2.300000E+03   2.300000E+03   2.300000E+03   2.300000E+03   2.300000E+03   2.300000E+03   2.300000E+03   2.300000E+03   2.300000E+03   2.300000E+03   2.300000E+03   2.300000E+03   2.300000E+03   2.300000E+03   2.300000E+03   2.300000E+03   2.300000E+03   2.300000E+03   2.300000E+03   2.300000E+03   2.300000E+03   2.300000E+03   2.300000E+03   2.300000E+03   2.300000E+03
   2.300000E+03   2.300000E+03   2.300000E+03   2.300000E+03   2.300000E+03   2.300000E+03   2.300000E+03   2.300000E+03   2.300000E+03   2.300000E+03   2.300000E+03   2.300000E+03   2.300000E+03   2.300000E+03   2.300000E+03   2.300000E+03   2.300000E+03   2.300000E+03   2.300000E+03   2.300000E+03   2.300000E+03   2.300000E+03   2.300000E+03   2.300000E+03   2.300000E+03   2.300000E+03   2.300000E+03   2.300000E+03   2.300000E+03   2.300000E+03   2.300000E+03   2.300000E+03   2.300000E+03   2.300000E+03   2.300000E+03   2.300000E+03   2.300000E+03   2.300000E+03   2.300000E+03   2.300000E+03
   2.300000E+03   2.300000E+03   2.300000E+03   2.300000E+03   2.300000E+03   2.300000E+03   2.300000E+03   2.300000E+03   2.300000E+03   2.300000E+03   2.300000E+03   2.300000E+03   2.300000E+03   2.300000E+03   2.300000E+03   2.300000E+03   2.300000E+03   2.300000E+03   2.300000E+03   2.300000E+03   2.300000E+03   2.300000E+03   2.300000E+03   2.300000E+03   2.300000E+03   2.300000E+03   2.300000E+03   2.300000E+03   2.300000E+03   2.300000E+03   2.300000E+03   2.300000E+03   2.300000E+03   2.300000E+03   2.300000E+03   2.300000E+03   2.300000E+03   2.300000E+03   2.300000E+03   2.300000E+03
   2.300000E+03   2.300000E+03   2.300000E+03   2.300000E+03   2.300000E+03   2.300000E+03   2.300000E+03   2.300000E+03   2.300000E+03   2.300000E+03   2.300000E+03   2.300000E+03   2.300000E+03   2.300000E+03   2.300000E+03   2.300000E+03   2.300000E+03   2.300000E+03   2.300000E+03   2.300000E+03   2.300000E+03   2.300000E+03   2.300000E+03   2.300000E+03   2.300000E+03   2.300000E+03   2.300000E+03   2.300000E+03   2.300000E+03   2.300000E+03   2.300000E+03   2.300000E+03   2.300000E+03   2.300000E+03   2.300000E+03   2.300000E+03   2.300000E+03   2.300000E+03   2.300000E+03   2.300000E+03
   2.300000E+03   2.300000E+03   2.300000E+03   2.300000E+03   2.300000E+03   2.300000E+03   2.300000E+03   2.300000E+03   2.300000E+03   2.300000E+03   2.300000E+03   2.300000E+03   2.300000E+03   2.300000E+03   2.300000E+03   2.300000E+03   2.300000E+03   2.300000E+03   2.300000E+03   2.300000E+03   2.300000E+03   2.300000E+03   2.300000E+03   2.300000E+03   2.300000E+03   2.300000E+03   2.300000E+03   2.300000E+03   2.300000E+03   2.300000E+03   2.300000E+03   2.300000E+03   2.300000E+03   2.300000E+03   2.300000E+03   2.300000E+03   2.300000E+03   2.300000E+03   2.300000E+03   2.300000E+03