# BAS6 package for MODFLOW-2005 generated by Flopy 3.9.5
FREE
INTERNAL               1    (40I10) -1 #ibound layer 1                
         1         1         1         1         1         1         1         1         1         1         1         1         1         1         1         1         1         1         1         1         1         1         1         1         1         1         1         1         1         1         1         1         1         1         1         1         1         1         1         1
         1         1         1         1         1         1         1         1         1         1         1         1         1         1         1         1         1         1         1         1         1         1         1         1         1         1         1         1         1         1         1         1         1         1         1         1         1         1         1         1
         1         1         1         1         1         1         1         1         1         1         1         1         1         1         1         1         1         1         1         1         1         1         1         1         1         1         1         1         1         1         1         1         1         1         1         1         1         1         1         1
         1         1         1         1         1         1         1         1         1         1         1         1         1         1         1         1         1         1         1         1         1         1         1         1         1         1         1         1         1         1         1         1         1         1         1         1         1         1         1         1
         1         1         1         1         1         1         1         1         1         1         1         1         1         1         1         1         1         1         1         1         1         1         1         1         1         1         1         1         1         1         1         1         1         1         1         1         1         1         1         1
         1         1         1         1         1         1         1         1         1         1         1         1         1         1         1         1         1         1         1         1         1         1         1         1         1         1         1         1         1         1         1         1         1         1         1         1         1         1         1         1
         1         1         1         1         1         1         1         1         1         1         1         1         1         1         1         1         1         1         1         1         1         1         1         1         1         1         1         1         1         1         1         1         1         1         1         1         1         1         1         1
         1         1         1         1         1         1         1         1         1         1         1         1         1         1         1         1         1         1         1         1         1         1         1         1         1         1         1         1         1         1         1         1         1         1         1         1         1         1         1         1
         1         1         1         1         1         1         1         1         1         1         1         1         1         1         1         1         1         1         1         1         1         1         1         1         1         1         1         1         1         1         1         1         1         1         1         1         1         1         1         1
         1         1         1         1         1         1         1         1         1         1         1         1         1         1         1         1         1         1         1         1         1         1         1         1         1         1         1         1         1         1         1         1         1         1         1         1         1         1         1         1
         1         1         1         1         1         1         1         1         1         1         1         1         1         1         1         1         1         1         1         1         1         1         1         1         1         1         1         1         1         1         1         1         1         1         1         1         1         1         1         1
         1         1         1         1         1         1         1         1         1         1         1         1         1         1         1         1         1         1         1         1         1         1         1         1         1         1         1         1         1         1         1         1         1         1         1         1         1         1         1         1
         1         1         1         1         1         1         1         1         1         1         1         1         1         1         1         1         1         1         1         1         1         1         1         1         1         1         1         1         1         1         1         1         1         1         1         1         1         1         1         1
         1         1         1         1         1         1         1         1         1         1         1         1         1         1         1         1         1         1         1         1         1         1         1         1         1         1         1         1         1         1         1         1         1         1         1         1         1         1         1         1
         1         1         1         1         1         1         1         1         1         1         1         1         1         1         1         1         1         1         1         1         1         1         1         1         1         1         1         1         1         1         1         1         1         1         1         1         1         1         1         1
         1         1         1         1         1         1         1         1         1         1         1         1         1         1         1         1         1         1         1         1         1         1         1         1         1         1         1         1         1         1         1         1         1         1         1         1         1         1         1         1
         1         1         1         1         1         1         1         1         1         1         1         1         1         1         1         1         1         1         1         1         1         1         1         1         1         1         1         1         1         1         1         1         1         1         1         1         1         1         1         1
         1         1         1         1         1         1         1         1         1         1         1         1         1         1         1         1         1         1         1         1         1         1         1         1         1         1         1         1         1         1         1         1         1         1         1         1         1         1         1         1
         1         1         1         1         1         1         1         1         1         1         1         1         1         1         1         1         1         1         1         1         1         1         1         1         1         1         1         1         1         1         1         1         1         1         1         1         1         1         1         1
         1         1         1         1         1         1         1         1         1         1         1         1         1         1         1         1         1         1         1         1         1         1         1         1         1         1         1         1         1         1         1         1         1         1         1         1         1         1         1         1
         1         1         1         1         1         1         1         1         1         1         1         1         1         1         1         1         1         1         1         1         1         1         1         1         1         1         1         1         1         1         1         1         1         1         1         1         1         1         1         1
         1         1         1         1         1         1         1         1         1         1         1         1         1         1         1         1         1         1         1         1         1         1         1         1         1         1         1         1         1         1         1         1         1         1         1         1         1         1         1         1
         1         1         1         1         1         1         1         1         1         1         1         1         1         1         1         1         1         1         1         1         1         1         1         1         1         1         1         1         1         1         1         1         1         1         1         1         1         1         1         1
         1         1         1         1         1         1         1         1         1         1         1         1         1         1         1         1         1         1         1         1         1         1         1         1         1         1         1         1         1         1         1         1         1         1         1         1         1         1         1         1
         1         1         1         1         1         1         1         1         1         1         1         1         1         1         1         1         1         1         1         1         1         1         1         1         1         1         1         1         1         1         1         1         1         1         1         1         1         1         1         1
         1         1         1         1         1         1         1         1         1         1         1         1         1         1         1         1         1         1         1         1         1         1         1         1         1         1         1         1         1         1         1         1         1         1         1         1         1         1         1         1
         1         1         1         1         1         1         1         1         1         1         1         1         1         1         1         1         1         1         1         1         1         1         1         1         1         1         1         1         1         1         1         1         1         1         1         1         1         1         1         1
         1         1         1         1         1         1         1         1         1         1         1         1         1         1         1         1         1         1         1         1         1         1         1         1         1         1         1         1         1         1         1         1         1         1         1         1         1         1         1         1
         1         1         1         1         1         1         1         1         1         1         1         1         1         1         1         1         1         1         1         1         1         1         1         1         1         1         1         1         1         1         1         1         1         1         1         1         1         1         1         1
         1         1         1         1         1         1         1         1         1         1         1         1         1         1         1         1         1         1         1         1         1         1         1         1         1         1         1         1         1         1         1         1         1         1         1         1         1         1         1         1
         1         1         1         1         1         1         1         1         1         1         1         1         1         1         1         1         1         1         1         1         1         1         1         1         1         1         1         1         1         1         1         1         1         1         1         1         1         1         1         1
         1         1         1         1         1         1         1         1         1         1         1         1         1         1         1         1         1         1         1         1         1         1         1         1         1         1         1         1         1         1         1         1         1         1         1         1         1         1         1         1
         1         1         1         1         1         1         1         1         1         1         1         1         1         1         1         1         1         1         1         1         1         1         1         1         1         1         1         1         1         1         1         1         1         1         1         1         1         1         1         1
         1         1         1         1         1         1         1         1         1         1         1         1         1         1         1         1         1         1         1         1         1         1         1         1         1         1         1         1         1         1         1         1         1         1         1         1         1         1         1         1
         1         1         1         1         1         1         1         1         1         1         1         1         1         1         1         1         1         1         1         1         1         1         1         1         1         1         1         1         1         1         1         1         1         1         1         1         1         1         1         1
         1         1         1         1         1         1         1         1         1         1         1         1         1         1         1         1         1         1         1         1         1         1         1         1         1         1         1         1         1         1         1         1         1         1         1         1         1         1         1         1
         1         1         1         1         1         1         1         1         1         1         1         1         1         1         1         1         1         1         1         1         1         1         1         1         1         1         1         1         1         1         1         1         1         1         1         1         1         1         1         1
         1         1         1         1         1         1         1         1         1         1         1         1         1         1         1         1         1         1         1         1         1         1         1         1         1         1         1         1         1         1         1         1         1         1         1         1         1         1         1         1
         1         1         1         1         1         1         1         1         1         1         1         1         1         1         1         1         1         1         1         1         1         1         1         1         1         1         1         1         1         1         1         1         1         1         1         1         1         1         1         1
         1         1         1         1         1         1         1         1         1         1         1         1         1         1         1         1         1         1         1         1         1         1         1         1         1         1         1         1         1         1         1         1         1         1         1         1         1         1         1         1
   -999.99
INTERNAL               1  (40E15.6) -1 #strt layer 1                  
   2.500000E+03   2.500000E+03   2.500000E+03   2.500000E+03   2.500000E+03   2.500000E+03   2.500000E+03   2.500000E+03   2.500000E+03   2.500000E+03   2.500000E+03   2.500000E+03   2.500000E+03   2.500000E+03   2.500000E+03   2.500000E+03   2.500000E+03   2.500000E+03   2.500000E+03   2.500000E+03   2.500000E+03   2.500000E+03   2.500000E+03   2.500000E+03   2.500000E+03   2.500000E+03   2.500000E+03   2.500000E+03   2.500000E+03   2.500000E+03   2.500000E+03   2.500000E+03   2.500000E+03   2.500000E+03   2.500000E+03   2.500000E+03   2.500000E+03   2.500000E+03   2.500000E+03   2.500000E+03
   2.500000E+03   2.500000E+03   2.500000E+03   2.500000E+03   2.500000E+03   2.500000E+03   2.500000E+03   2.500000E+03   2.500000E+03   2.500000E+03   2.500000E+03   2.500000E+03   2.500000E+03   2.500000E+03   2.500000E+03   2.500000E+03   2.500000E+03   2.500000E+03   2.500000E+03   2.500000E+03   2.500000E+03   2.500000E+03   2.500000E+03   2.500000E+03   2.500000E+03   2.500000E+03   2.500000E+03   2.500000E+03   2.500000E+03   2.500000E+03   2.500000E+03   2.500000E+03   2.500000E+03   2.500000E+03   2.500000E+03   2.500000E+03   2.500000E+03   2.500000E+03   2.500000E+03   2.500000E+03
   2.500000E+03   2.500000E+03   2.500000E+03   2.500000E+03   2.500000E+03   2.500000E+03   2.500000E+03   2.500000E+03   2.500000E+03   2.500000E+03   2.500000E+03   2.500000E+03   2.500000E+03   2.500000E+03   2.500000E+03   2.500000E+03   2.500000E+03   2.500000E+03   2.500000E+03   2.500000E+03   2.500000E+03   2.500000E+03   2.500000E+03   2.500000E+03   2.500000E+03   2.500000E+03   2.500000E+03   2.500000E+03   2.500000E+03   2.500000E+03   2.500000E+03   2.500000E+03   2.500000E+03   2.500000E+03   2.500000E+03   2.500000E+03   2.500000E+03   2.500000E+03   2.500000E+03   2.500000E+03
   2.500000E+03   2.500000E+03   2.500000E+03   2.500000E+03   2.500000E+03   2.500000E+03   2.500000E+03   2.500000E+03   2.500000E+03   2.500000E+03   2.500000E+03   2.500000E+03   2.500000E+03   2.500000E+03   2.500000E+03   2.500000E+03   2.500000E+03   2.500000E+03   2.500000E+03   2.500000E+03   2.500000E+03   2.500000E+03   2.500000E+03   2.500000E+03   2.500000E+03   2.500000E+03   2.500000E+03   2.500000E+03   2.500000E+03   2.500000E+03   2.500000E+03   2.500000E+03   2.500000E+03   2.500000E+03   2.500000E+03   2.500000E+03   2.500000E+03   2.500000E+03   2.500000E+03   2.500000E+03
   2.500000E+03   2.500000E+03   2.500000E+03   2.500000E+03   2.500000E+03   2.500000E+03   2.500000E+03   2.500000E+03   2.500000E+03   2.500000E+03   2.500000E+03   2.500000E+03   2.500000E+03   2.500000E+03   2.500000E+03   2.500000E+03   2.500000E+03   2.500000E+03   2.500000E+03   2.500000E+03   2.500000E+03   2.500000E+03   2.500000E+03   2.500000E+03   2.500000E+03   2.500000E+03   2.500000E+03   2.500000E+03   2.500000E+03   2.500000E+03   2.500000E+03   2.500000E+03   2.500000E+03   2.500000E+03   2.500000E+03   2.500000E+03   2.500000E+03   2.500000E+03   2.500000E+03   2.500000E+03
   2.500000E+03   2.500000E+03   2.500000E+03   2.500000E+03   2.500000E+03   2.500000E+03   2.500000E+03   2.500000E+03   2.500000E+03   2.500000E+03   2.500000E+03   2.500000E+03   2.500000E+03   2.500000E+03   2.500000E+03   2.500000E+03   2.500000E+03   2.500000E+03   2.500000E+03   2.500000E+03   2.500000E+03   2.500000E+03   2.500000E+03   2.500000E+03   2.500000E+03   2.500000E+03   2.500000E+03   2.500000E+03   2.500000E+03   2.500000E+03   2.500000E+03   2.500000E+03   2.500000E+03   2.500000E+03   2.500000E+03   2.500000E+03   2.500000E+03   2.500000E+03   2.500000E+03   2.500000E+03
   2.500000E+03   2.500000E+03   2.500000E+03   2.500000E+03   2.500000E+03   2.500000E+03   2.500000E+03   2.500000E+03   2.500000E+03   2.500000E+03   2.500000E+03   2.500000E+03   2.500000E+03   2.500000E+03   2.500000E+03   2.500000E+03   2.500000E+03   2.500000E+03   2.500000E+03   2.500000E+03   2.500000E+03   2.500000E+03   2.500000E+03   2.500000E+03   2.500000E+03   2.500000E+03   2.500000E+03   2.500000E+03   2.500000E+03   2.500000E+03   2.500000E+03   2.500000E+03   2.500000E+03   2.500000E+03   2.500000E+03   2.500000E+03   2.500000E+03   2.500000E+03   2.500000E+03   2.500000E+03
   2.500000E+03   2.500000E+03   2.500000E+03   2.500000E+03   2.500000E+03   2.500000E+03   2.500000E+03   2.500000E+03   2.500000E+03   2.500000E+03   2.500000E+03   2.500000E+03   2.500000E+03   2.500000E+03   2.500000E+03   2.500000E+03   2.500000E+03   2.500000E+03   2.500000E+03   2.500000E+03   2.500000E+03   2.500000E+03   2.500000E+03   2.500000E+03   2.500000E+03   2.500000E+03   2.500000E+03   2.500000E+03   2.500000E+03   2.500000E+03   2.500000E+03   2.500000E+03   2.500000E+03   2.500000E+03   2.500000E+03   2.500000E+03   2.500000E+03   2.500000E+03   2.500000E+03   2.500000E+03
   2.500000E+03   2.500000E+03   2.500000E+03   2.500000E+03   2.500000E+03   2.500000E+03   2.500000E+03   2.500000E+03   2.500000E+03   2.500000E+03   2.500000E+03   2.500000E+03   2.500000E+03   2.500000E+03   2.500000E+03   2.500000E+03   2.500000E+03   2.500000E+03   2.500000E+03   2.500000E+03   2.500000E+03   2.500000E+03   2.500000E+03   2.500000E+03   2.500000E+03   2.500000E+03   2.500000E+03   2.500000E+03   2.500000E+03   2.500000E+03   2.500000E+03   2.500000E+03   2.500000E+03   2.500000E+03   2.500000E+03   2.500000E+03   2.500000E+03   2.500000E+03   2.500000E+03   2.500000E+03
   2.500000E+03   2.500000E+03   2.500000E+03   2.500000E+03   2.500000E+03   2.500000E+03   2.500000E+03   2.500000E+03   2.500000E+03   2.500000E+03   2.500000E+03   2.500000E+03   2.500000E+03   2.500000E+03   2.500000E+03   2.500000E+03   2.500000E+03   2.500000E+03   2.500000E+03   2.500000E+03   2.500000E+03   2.500000E+03   2.500000E+03   2.500000E+03   2.500000E+03   2.500000E+03   2.500000E+03   2.500000E+03   2.500000E+03   2.500000E+03   2.500000E+03   2.500000E+03   2.500000E+03   2.500000E+03   2.500000E+03   2.500000E+03   2.500000E+03   2.500000E+03   2.500000E+03   2.500000E+03
   2.500000E+03   2.500000E+03   2.500000E+03   2.500000E+03   2.500000E+03   2.500000E+03   2.500000E+03   2.500000E+03   2.500000E+03   2.500000E+03   2.500000E+03   2.500000E+03   2.500000E+03   2.500000E+03   2.500000E+03   2.500000E+03   2.500000E+03   2.500000E+03   2.500000E+03   2.500000E+03   2.500000E+03   2.500000E+03   2.500000E+03   2.500000E+03   2.500000E+03   2.500000E+03   2.500000E+03   2.500000E+03   2.500000E+03   2.500000E+03   2.500000E+03   2.500000E+03   2.500000E+03   2.500000E+03   2.500000E+03   2.500000E+03   2.500000E+03   2.500000E+03   2.500000E+03   2.500000E+03
   2.500000E+03   2.500000E+03   2.500000E+03   2.500000E+03   2.500000E+03   2.500000E+03   2.500000E+03   2.500000E+03   2.500000E+03   2.500000E+03   2.500000E+03   2.500000E+03   2.500000E+03   2.500000E+03   2.500000E+03   2.500000E+03   2.500000E+03   2.500000E+03   2.500000E+03   2.500000E+03   2.500000E+03   2.500000E+03   2.500000E+03   2.500000E+03   2.500000E+03   2.500000E+03   2.500000E+03   2.500000E+03   2.500000E+03   2.500000E+03   2.500000E+03   2.500000E+03   2.500000E+03   2.500000E+03   2.500000E+03   2.500000E+03   2.500000E+03   2.500000E+03   2.500000E+03   2.500000E+03
   2.500000E+03   2.500000E+03   2.500000E+03   2.500000E+03   2.500000E+03   2.500000E+03   2.500000E+03   2.500000E+03   2.500000E+03   2.500000E+03   2.500000E+03   2.500000E+03   2.500000E+03   2.500000E+03   2.500000E+03   2.500000E+03   2.500000E+03   2.500000E+03   2.500000E+03   2.500000E+03   2.500000E+03   2.500000E+03   2.500000E+03   2.500000E+03   2.500000E+03   2.500000E+03   2.500000E+03   2.500000E+03   2.500000E+03   2.500000E+03   2.500000E+03   2.500000E+03   2.500000E+03   2.500000E+03   2.500000E+03   2.500000E+03   2.500000E+03   2.500000E+03   2.500000E+03   2.500000E+03
   2.500000E+03   2.500000E+03   2.500000E+03   2.500000E+03   2.500000E+03   2.500000E+03   2.500000E+03   2.500000E+03   2.500000E+03   2.500000E+03   2.500000E+03   2.500000E+03   2.500000E+03   2.500000E+03   2.500000E+03   2.500000E+03   2.500000E+03   2.500000E+03   2.500000E+03   2.500000E+03   2.500000E+03   2.500000E+03   2.500000E+03   2.500000E+03   2.500000E+03   2.500000E+03   2.500000E+03   2.500000E+03   2.500000E+03   2.500000E+03   2.500000E+03   2.500000E+03   2.500000E+03   2.500000E+03   2.500000E+03   2.500000E+03   2.500000E+03   2.500000E+03   2.500000E+03   2.500000E+03
   2.500000E+03   2.500000E+03   2.500000E+03   2.500000E+03   2.500000E+03   2.500000E+03   2.500000E+03   2.500000E+03   2.500000E+03   2.500000E+03   2.500000E+03   2.500000E+03   2.500000E+03   2.500000E+03   2.500000E+03   2.500000E+03   2.500000E+03   2.500000E+03   2.500000E+03   2.500000E+03   2.500000E+03   2.500000E+03   2.500000E+03   2.500000E+03   2.500000E+03   2.500000E+03   2.500000E+03   2.500000E+03   2.500000E+03   2.500000E+03   2.500000E+03   2.500000E+03   2.500000E+03   2.500000E+03   2.500000E+03   2.500000E+03   2.500000E+03   2.500000E+03   2.500000E+03   2.500000E+03
   2.500000E+03   2.500000E+03   2.500000E+03   2.500000E+03   2.500000E+03   2.500000E+03   2.500000E+03   2.500000E+03   2.500000E+03   2.500000E+03   2.500000E+03   2.500000E+03   2.500000E+03   2.500000E+03   2.500000E+03   2.500000E+03   2.500000E+03   2.500000E+03   2.500000E+03   2.500000E+03   2.500000E+03   2.500000E+03   2.500000E+03   2.500000E+03   2.500000E+03   2.500000E+03   2.500000E+03   2.500000E+03   2.500000E+03   2.500000E+03   2.500000E+03   2.500000E+03   2.500000E+03   2.500000E+03   2.500000E+03   2.500000E+03   2.500000E+03   2.500000E+03   2.500000E+03   2.500000E+03
   2.500000E+03   2.500000E+03   2.500000E+03   2.500000E+03   2.500000E+03   2.500000E+03   2.500000E+03   2.500000E+03   2.500000E+03   2.500000E+03   2.500000E+03   2.500000E+03   2.500000E+03   2.500000E+03   2.500000E+03   2.500000E+03   2.500000E+03   2.500000E+03   2.500000E+03   2.500000E+03   2.500000E+03   2.500000E+03   2.500000E+03   2.500000E+03   2.500000E+03   2.500000E+03   2.500000E+03   2.500000E+03   2.500000E+03   2.500000E+03   2.500000E+03   2.500000E+03   2.500000E+03   2.500000E+03   2.500000E+03   2.500000E+03   2.500000E+03   2.500000E+03   2.500000E+03   2.500000E+03
   2.500000E+03   2.500000E+03   2.500000E+03   2.500000E+03   2.500000E+03   2.500000E+03   2.500000E+03   2.500000E+03   2.500000E+03   2.500000E+03   2.500000E+03   2.500000E+03   2.500000E+03   2.500000E+03   2.500000E+03   2.500000E+03   2.500000E+03   2.500000E+03   2.500000E+03   2.500000E+03   2.500000E+03   2.500000E+03   2.500000E+03   2.500000E+03   2.500000E+03   2.500000E+03   2.500000E+03   2.500000E+03   2.500000E+03   2.500000E+03   2.500000E+03   2.500000E+03   2.500000E+03   2.500000E+03   2.500000E+03   2.500000E+03   2.500000E+03   2.500000E+03   2.500000E+03   2.500000E+03
   2.500000E+03   2.500000E+03   2.500000E+03   2.500000E+03   2.500000E+03   2.500000E+03   2.500000E+03   2.500000E+03   2.500000E+03   2.500000E+03   2.500000E+03   2.500000E+03   2.500000E+03   2.500000E+03   2.500000E+03   2.500000E+03   2.500000E+03   2.500000E+03   2.500000E+03   2.500000E+03   2.500000E+03   2.500000E+03   2.500000E+03   2.500000E+03   2.500000E+03   2.500000E+03   2.500000E+03   2.500000E+03   2.500000E+03   2.500000E+03   2.500000E+03   2.500000E+03   2.500000E+03   2.500000E+03   2.500000E+03   2.500000E+03   2.500000E+03   2.500000E+03   2.500000E+03   2.500000E+03
   2.500000E+03   2.500000E+03   2.500000E+03   2.500000E+03   2.500000E+03   2.500000E+03   2.500000E+03   2.500000E+03   2.500000E+03   2.500000E+03   2.500000E+03   2.500000E+03   2.500000E+03   2.500000E+03   2.500000E+03   2.500000E+03   2.500000E+03   2.500000E+03   2.500000E+03   2.500000E+03   2.500000E+03   2.500000E+03   2.500000E+03   2.500000E+03   2.500000E+03   2.500000E+03   2.500000E+03   2.500000E+03   2.500000E+03   2.500000E+03   2.500000E+03   2.500000E+03   2.500000E+03   2.500000E+03   2.500000E+03   2.500000E+03   2.500000E+03   2.500000E+03   2.500000E+03   2.500000E+03
   2.500000E+03   2.500000E+03   2.500000E+03   2.500000E+03   2.500000E+03   2.500000E+03   2.500000E+03   2.500000E+03   2.500000E+03   2.500000E+03   2.500000E+03   2.500000E+03   2.500000E+03   2.500000E+03   2.500000E+03   2.500000E+03   2.500000E+03   2.500000E+03   2.500000E+03   2.500000E+03   2.500000E+03   2.500000E+03   2.500000E+03   2.500000E+03   2.500000E+03   2.500000E+03   2.500000E+03   2.500000E+03   2.500000E+03   2.500000E+03   2.500000E+03   2.500000E+03   2.500000E+03   2.500000E+03   2.500000E+03   2.500000E+03   2.500000E+03   2.500000E+03   2.500000E+03   2.500000E+03
   2.500000E+03   2.500000E+03   2.500000E+03   2.500000E+03   2.500000E+03   2.500000E+03   2.500000E+03   2.500000E+03   2.500000E+03   2.500000E+03   2.500000E+03   2.500000E+03   2.500000E+03   2.500000E+03   2.500000E+03   2.500000E+03   2.500000E+03   2.500000E+03   2.500000E+03   2.500000E+03   2.500000E+03   2.500000E+03   2.500000E+03   2.500000E+03   2.500000E+03   2.500000E+03   2.500000E+03   2.500000E+03   2.500000E+03   2.500000E+03   2.500000E+03   2.500000E+03   2.500000E+03   2.500000E+03   2.500000E+03   2.500000E+03   2.500000E+03   2.500000E+03   2.500000E+03   2.500000E+03